<?xml version="1.0" encoding="UTF-8"?>

<!-- generated on 2024-05-02 14:06:01.658162 by osmWebWizard.py UNKNOWN
<configuration>
    <net-file value="/home/descartes/Sumo/2024-05-02-14-05-07/osm.net.xml.gz"/>
    <output-trip-file value="/home/descartes/Sumo/2024-05-02-14-05-07/osm.motorcycle.trips.xml"/>
    <route-file value="/home/descartes/Sumo/2024-05-02-14-05-07/osm.motorcycle.rou.xml"/>
    <prefix value="motorcycle"/>
    <trip-attributes value="departLane=&quot;best&quot;"/>
    <fringe-start-attributes value="departSpeed=&quot;max&quot;"/>
    <vehicle-class value="motorcycle"/>
    <fringe-factor value="2"/>
    <vclass value="motorcycle"/>
    <via-edge-types value="highway.motorway,highway.motorway_link,highway.trunk_link,highway.primary_link,highway.secondary_link,highway.tertiary_link"/>
    <max-distance value="1200.0"/>
    <remove-loops value="True"/>
    <validate value="True"/>
    <insertion-density value="4.0"/>
</configuration>
-->

<!-- generated on 2024-05-02 14:06:01 by Eclipse SUMO duarouter Version 1.19.0
<configuration xmlns:xsi="http://www.w3.org/2001/XMLSchema-instance" xsi:noNamespaceSchemaLocation="http://sumo.dlr.de/xsd/duarouterConfiguration.xsd">

    <input>
        <net-file value="/home/descartes/Sumo/2024-05-02-14-05-07/osm.net.xml.gz"/>
        <route-files value="/home/descartes/Sumo/2024-05-02-14-05-07/osm.motorcycle.trips.xml"/>
    </input>

    <output>
        <output-file value="/home/descartes/Sumo/2024-05-02-14-05-07/osm.motorcycle.trips.xml.tmp"/>
        <alternatives-output value="NUL"/>
        <write-trips value="true"/>
    </output>

    <processing>
        <remove-loops value="true"/>
    </processing>

    <time>
        <begin value="0.0"/>
        <end value="3600.0"/>
    </time>

    <report>
        <no-warnings value="true"/>
        <ignore-errors value="true"/>
        <no-step-log value="true"/>
    </report>

</configuration>
-->

<routes xmlns:xsi="http://www.w3.org/2001/XMLSchema-instance" xsi:noNamespaceSchemaLocation="http://sumo.dlr.de/xsd/routes_file.xsd">
    <vType id="motorcycle_motorcycle" vClass="motorcycle"/>
    <trip id="motorcycle0" type="motorcycle_motorcycle" depart="0.00" departLane="best" from="-250457120#3" to="-1191381555"/>
    <trip id="motorcycle1" type="motorcycle_motorcycle" depart="2.98" departLane="best" from="-479184829#1" to="-385433540#1"/>
    <trip id="motorcycle2" type="motorcycle_motorcycle" depart="5.95" departLane="best" from="-62224151#6" to="183218168"/>
    <trip id="motorcycle3" type="motorcycle_motorcycle" depart="8.93" departLane="best" from="253460392#0" to="183217109"/>
    <trip id="motorcycle4" type="motorcycle_motorcycle" depart="11.91" departLane="best" from="-385433512#0" to="183218179#2"/>
    <trip id="motorcycle5" type="motorcycle_motorcycle" depart="14.88" departLane="best" from="183218178#0" to="-183218179#4"/>
    <trip id="motorcycle6" type="motorcycle_motorcycle" depart="17.86" departLane="best" from="590991303#1" to="-183218499#23"/>
    <trip id="motorcycle7" type="motorcycle_motorcycle" depart="20.83" departLane="best" from="-183218183#0" to="-489364458#2"/>
    <trip id="motorcycle9" type="motorcycle_motorcycle" depart="26.79" departLane="best" from="183217119#1" to="-255563361#1"/>
    <trip id="motorcycle10" type="motorcycle_motorcycle" depart="29.76" departLane="best" from="-479170168" to="385796249#0"/>
    <trip id="motorcycle11" type="motorcycle_motorcycle" depart="32.74" departLane="best" from="183217120#2" to="-479169839#1"/>
    <trip id="motorcycle12" type="motorcycle_motorcycle" depart="35.72" departLane="best" from="-183218188#2" to="204096428#5"/>
    <trip id="motorcycle13" type="motorcycle_motorcycle" depart="38.69" departLane="best" from="589857582" to="-62226807#4"/>
    <trip id="motorcycle14" type="motorcycle_motorcycle" depart="41.67" departLane="best" from="887795679#4" to="-183112046#0"/>
    <trip id="motorcycle15" type="motorcycle_motorcycle" depart="44.65" departLane="best" from="685127978#0" to="-592390953#1"/>
    <trip id="motorcycle16" type="motorcycle_motorcycle" depart="47.62" departLane="best" from="255563355#6" to="-183217104#1"/>
    <trip id="motorcycle17" type="motorcycle_motorcycle" depart="50.60" departLane="best" from="-183218190#1" to="-678959219"/>
    <trip id="motorcycle18" type="motorcycle_motorcycle" depart="53.58" departLane="best" from="479169839#0" to="183217105#1"/>
    <trip id="motorcycle20" type="motorcycle_motorcycle" depart="59.53" departLane="best" from="-593842679#1" to="590994747#2"/>
    <trip id="motorcycle21" type="motorcycle_motorcycle" depart="62.50" departLane="best" from="593842677#0" to="-678959219"/>
    <trip id="motorcycle22" type="motorcycle_motorcycle" depart="65.48" departLane="best" from="183217120#9" to="479169839#0"/>
    <trip id="motorcycle23" type="motorcycle_motorcycle" depart="68.46" departLane="best" from="-681245003" to="1221684698#1"/>
    <trip id="motorcycle24" type="motorcycle_motorcycle" depart="71.43" departLane="best" from="183218499#10" to="-385433546#3"/>
    <trip id="motorcycle25" type="motorcycle_motorcycle" depart="74.41" departLane="best" from="-590994759#1" to="-183218179#0"/>
    <trip id="motorcycle26" type="motorcycle_motorcycle" depart="77.39" departLane="best" from="-385433576#1" to="385433509#7"/>
    <trip id="motorcycle27" type="motorcycle_motorcycle" depart="80.36" departLane="best" from="-385433574#1" to="62226379#0"/>
    <trip id="motorcycle28" type="motorcycle_motorcycle" depart="83.34" departLane="best" from="-592390948" to="-183217121#11"/>
    <trip id="motorcycle29" type="motorcycle_motorcycle" depart="86.32" departLane="best" from="385433425" to="-204096428#0"/>
    <trip id="motorcycle30" type="motorcycle_motorcycle" depart="89.29" departLane="best" from="-183218179#4" to="590793477"/>
    <trip id="motorcycle31" type="motorcycle_motorcycle" depart="92.27" departLane="best" from="385433637#3" to="-255563348"/>
    <trip id="motorcycle32" type="motorcycle_motorcycle" depart="95.25" departLane="best" from="686758039#0" to="-183218181#1"/>
    <trip id="motorcycle33" type="motorcycle_motorcycle" depart="98.22" departLane="best" from="-255563358#4" to="684867497#4"/>
    <trip id="motorcycle34" type="motorcycle_motorcycle" depart="101.20" departLane="best" from="479158135#1" to="62226546#4"/>
    <trip id="motorcycle35" type="motorcycle_motorcycle" depart="104.17" departLane="best" from="183217112#1" to="-183217105#13"/>
    <trip id="motorcycle36" type="motorcycle_motorcycle" depart="107.15" departLane="best" from="-685123275" to="62226637#1"/>
    <trip id="motorcycle37" type="motorcycle_motorcycle" depart="110.13" departLane="best" from="-592082556#0" to="-255563330#1"/>
    <trip id="motorcycle38" type="motorcycle_motorcycle" depart="113.10" departLane="best" from="-593842679#0" to="-686767326#0"/>
    <trip id="motorcycle39" type="motorcycle_motorcycle" depart="116.08" departLane="best" from="-479170169" to="546413228#2"/>
    <trip id="motorcycle40" type="motorcycle_motorcycle" depart="119.06" departLane="best" from="-685123274" to="62226809#2"/>
    <trip id="motorcycle41" type="motorcycle_motorcycle" depart="122.03" departLane="best" from="-684576965#1" to="887795679#2"/>
    <trip id="motorcycle42" type="motorcycle_motorcycle" depart="125.01" departLane="best" from="-183217118#1" to="385433550#1"/>
    <trip id="motorcycle43" type="motorcycle_motorcycle" depart="127.99" departLane="best" from="-1173665700" to="-592146043#1"/>
    <trip id="motorcycle44" type="motorcycle_motorcycle" depart="130.96" departLane="best" from="183218182#4" to="-255563352"/>
    <trip id="motorcycle45" type="motorcycle_motorcycle" depart="133.94" departLane="best" from="-62224151#0" to="385524622#2"/>
    <trip id="motorcycle46" type="motorcycle_motorcycle" depart="136.92" departLane="best" from="385433663#3" to="-62224267#2"/>
    <trip id="motorcycle47" type="motorcycle_motorcycle" depart="139.89" departLane="best" from="-255563340#1" to="-590546535#1"/>
    <trip id="motorcycle48" type="motorcycle_motorcycle" depart="142.87" departLane="best" from="62224148#0" to="62224148#0"/>
    <trip id="motorcycle49" type="motorcycle_motorcycle" depart="145.84" departLane="best" from="-590793499" to="-590522953#1"/>
    <trip id="motorcycle50" type="motorcycle_motorcycle" depart="148.82" departLane="best" from="-204096428#5" to="-183218192#0"/>
    <trip id="motorcycle51" type="motorcycle_motorcycle" depart="151.80" departLane="best" from="-479184825#1" to="183218190#1"/>
    <trip id="motorcycle52" type="motorcycle_motorcycle" depart="154.77" departLane="best" from="250455571#4" to="-479170166"/>
    <trip id="motorcycle53" type="motorcycle_motorcycle" depart="157.75" departLane="best" from="104498606#2" to="62226379#0"/>
    <trip id="motorcycle54" type="motorcycle_motorcycle" depart="160.73" departLane="best" from="-591843237" to="-183218177#1"/>
    <trip id="motorcycle55" type="motorcycle_motorcycle" depart="163.70" departLane="best" from="-62226809#3" to="-489102594#1"/>
    <trip id="motorcycle56" type="motorcycle_motorcycle" depart="166.68" departLane="best" from="-1173379368#0" to="479184827#0"/>
    <trip id="motorcycle57" type="motorcycle_motorcycle" depart="169.66" departLane="best" from="590522942#0" to="-592390953#1"/>
    <trip id="motorcycle58" type="motorcycle_motorcycle" depart="172.63" departLane="best" from="-62224269#5" to="385433384#1"/>
    <trip id="motorcycle59" type="motorcycle_motorcycle" depart="175.61" departLane="best" from="54172956#12" to="62224148#7"/>
    <trip id="motorcycle60" type="motorcycle_motorcycle" depart="178.59" departLane="best" from="-253460333#5" to="62226640#5"/>
    <trip id="motorcycle61" type="motorcycle_motorcycle" depart="181.56" departLane="best" from="590777077#2" to="62224148#14"/>
    <trip id="motorcycle62" type="motorcycle_motorcycle" depart="184.54" departLane="best" from="590777077#2" to="-479170458#1"/>
    <trip id="motorcycle64" type="motorcycle_motorcycle" depart="190.49" departLane="best" from="-590219986" to="385433570#0"/>
    <trip id="motorcycle65" type="motorcycle_motorcycle" depart="193.47" departLane="best" from="-590991303#2" to="-592424133#5"/>
    <trip id="motorcycle66" type="motorcycle_motorcycle" depart="196.44" departLane="best" from="685123322" to="-255563343"/>
    <trip id="motorcycle67" type="motorcycle_motorcycle" depart="199.42" departLane="best" from="-684867497#5" to="479170456"/>
    <trip id="motorcycle68" type="motorcycle_motorcycle" depart="202.40" departLane="best" from="62224148#3" to="183218166#11"/>
    <trip id="motorcycle69" type="motorcycle_motorcycle" depart="205.37" departLane="best" from="183217104#1" to="385433570#0"/>
    <trip id="motorcycle70" type="motorcycle_motorcycle" depart="208.35" departLane="best" from="385433550#0" to="-590546535#1"/>
    <trip id="motorcycle71" type="motorcycle_motorcycle" depart="211.33" departLane="best" from="-684480511" to="-385433420#2"/>
    <trip id="motorcycle72" type="motorcycle_motorcycle" depart="214.30" departLane="best" from="-590522942#0" to="-255563333#7"/>
    <trip id="motorcycle73" type="motorcycle_motorcycle" depart="217.28" departLane="best" from="183218166#5" to="1199342414"/>
    <trip id="motorcycle74" type="motorcycle_motorcycle" depart="220.26" departLane="best" from="255563343" to="-385433546#2"/>
    <trip id="motorcycle75" type="motorcycle_motorcycle" depart="223.23" departLane="best" from="-62226547#4" to="250455087#1"/>
    <trip id="motorcycle76" type="motorcycle_motorcycle" depart="226.21" departLane="best" from="-255563361#6" to="-326191765"/>
    <trip id="motorcycle77" type="motorcycle_motorcycle" depart="229.18" departLane="best" from="-255563339#6" to="684576966#2"/>
    <trip id="motorcycle78" type="motorcycle_motorcycle" depart="232.16" departLane="best" from="-685123322" to="590546537"/>
    <trip id="motorcycle79" type="motorcycle_motorcycle" depart="235.14" departLane="best" from="183218182#5" to="681245002"/>
    <trip id="motorcycle80" type="motorcycle_motorcycle" depart="238.11" departLane="best" from="62224151#4" to="183218497#2"/>
    <trip id="motorcycle81" type="motorcycle_motorcycle" depart="241.09" departLane="best" from="385433546#6" to="-1173665707"/>
    <trip id="motorcycle82" type="motorcycle_motorcycle" depart="244.07" departLane="best" from="-479156670" to="250457120#3"/>
    <trip id="motorcycle83" type="motorcycle_motorcycle" depart="247.04" departLane="best" from="-204096428#1" to="-479184829#0"/>
    <trip id="motorcycle84" type="motorcycle_motorcycle" depart="250.02" departLane="best" from="-479184825#0" to="-590972021#0"/>
    <trip id="motorcycle85" type="motorcycle_motorcycle" depart="253.00" departLane="best" from="183217104#5" to="250455571#0"/>
    <trip id="motorcycle86" type="motorcycle_motorcycle" depart="255.97" departLane="best" from="-62224548#8" to="183217105#6"/>
    <trip id="motorcycle87" type="motorcycle_motorcycle" depart="258.95" departLane="best" from="-593842681" to="1173665682"/>
    <trip id="motorcycle88" type="motorcycle_motorcycle" depart="261.92" departLane="best" from="-62226640#4" to="479158135#1"/>
    <trip id="motorcycle89" type="motorcycle_motorcycle" depart="264.90" departLane="best" from="183218499#6" to="-1199342416#1"/>
    <trip id="motorcycle90" type="motorcycle_motorcycle" depart="267.88" departLane="best" from="-204096428#8" to="-685461114"/>
    <trip id="motorcycle92" type="motorcycle_motorcycle" depart="273.83" departLane="best" from="255563333#2" to="-183218191#0"/>
    <trip id="motorcycle93" type="motorcycle_motorcycle" depart="276.81" departLane="best" from="-183218187#5" to="-1199342413"/>
    <trip id="motorcycle94" type="motorcycle_motorcycle" depart="279.78" departLane="best" from="590793478" to="255563354#2"/>
    <trip id="motorcycle95" type="motorcycle_motorcycle" depart="282.76" departLane="best" from="684576966#1" to="62224268#1"/>
    <trip id="motorcycle96" type="motorcycle_motorcycle" depart="285.74" departLane="best" from="255563370#0" to="-204096428#5"/>
    <trip id="motorcycle97" type="motorcycle_motorcycle" depart="288.71" departLane="best" from="-183218183#2" to="479184829#0"/>
    <trip id="motorcycle98" type="motorcycle_motorcycle" depart="291.69" departLane="best" from="183218499#10" to="686758039#1"/>
    <trip id="motorcycle99" type="motorcycle_motorcycle" depart="294.67" departLane="best" from="-592082556#2" to="590982379#1"/>
    <trip id="motorcycle100" type="motorcycle_motorcycle" depart="297.64" departLane="best" from="-678959282#1" to="385433663#4"/>
    <trip id="motorcycle101" type="motorcycle_motorcycle" depart="300.62" departLane="best" from="-590991306#2" to="-183218167"/>
    <trip id="motorcycle102" type="motorcycle_motorcycle" depart="303.59" departLane="best" from="-685461116#0" to="183218192#4"/>
    <trip id="motorcycle103" type="motorcycle_motorcycle" depart="306.57" departLane="best" from="-385433391#3" to="590522952"/>
    <trip id="motorcycle104" type="motorcycle_motorcycle" depart="309.55" departLane="best" from="591827071#1" to="62224148#11"/>
    <trip id="motorcycle106" type="motorcycle_motorcycle" depart="315.50" departLane="best" from="-1173665698#3" to="-678959283"/>
    <trip id="motorcycle107" type="motorcycle_motorcycle" depart="318.48" departLane="best" from="104498606#8" to="589902004"/>
    <trip id="motorcycle108" type="motorcycle_motorcycle" depart="321.45" departLane="best" from="183218178#0" to="-385433522"/>
    <trip id="motorcycle109" type="motorcycle_motorcycle" depart="324.43" departLane="best" from="-255563354#2" to="-385433456"/>
    <trip id="motorcycle110" type="motorcycle_motorcycle" depart="327.41" departLane="best" from="-933245828" to="-385433590#1"/>
    <trip id="motorcycle111" type="motorcycle_motorcycle" depart="330.38" departLane="best" from="685461115#1" to="-1263826232"/>
    <trip id="motorcycle112" type="motorcycle_motorcycle" depart="333.36" departLane="best" from="-54172956#6" to="-183218182#5"/>
    <trip id="motorcycle113" type="motorcycle_motorcycle" depart="336.34" departLane="best" from="-255563361#5" to="-385433570#0"/>
    <trip id="motorcycle114" type="motorcycle_motorcycle" depart="339.31" departLane="best" from="-592424142#2" to="-183218165#7"/>
    <trip id="motorcycle115" type="motorcycle_motorcycle" depart="342.29" departLane="best" from="-685462031#3" to="-684076033#2"/>
    <trip id="motorcycle116" type="motorcycle_motorcycle" depart="345.26" departLane="best" from="-479166605#0" to="183217105#2"/>
    <trip id="motorcycle117" type="motorcycle_motorcycle" depart="348.24" departLane="best" from="-677692009" to="-887795677#2"/>
    <trip id="motorcycle118" type="motorcycle_motorcycle" depart="351.22" departLane="best" from="183217106" to="253459884"/>
    <trip id="motorcycle120" type="motorcycle_motorcycle" depart="357.17" departLane="best" from="255563339#0" to="183217121#9"/>
    <trip id="motorcycle121" type="motorcycle_motorcycle" depart="360.15" departLane="best" from="-62226812#0" to="183217108"/>
    <trip id="motorcycle122" type="motorcycle_motorcycle" depart="363.12" departLane="best" from="253460333#1" to="62226379#6"/>
    <trip id="motorcycle123" type="motorcycle_motorcycle" depart="366.10" departLane="best" from="255563330#0" to="590768970"/>
    <trip id="motorcycle125" type="motorcycle_motorcycle" depart="372.05" departLane="best" from="1173379366#1" to="-183218165#6"/>
    <trip id="motorcycle126" type="motorcycle_motorcycle" depart="375.03" departLane="best" from="183112046#0" to="678735884#1"/>
    <trip id="motorcycle127" type="motorcycle_motorcycle" depart="378.01" departLane="best" from="590994757#2" to="-183218166#0"/>
    <trip id="motorcycle128" type="motorcycle_motorcycle" depart="380.98" departLane="best" from="592082555#0" to="-590994752#1"/>
    <trip id="motorcycle129" type="motorcycle_motorcycle" depart="383.96" departLane="best" from="255563339#6" to="592390947#1"/>
    <trip id="motorcycle130" type="motorcycle_motorcycle" depart="386.93" departLane="best" from="-62224547#8" to="1191381556"/>
    <trip id="motorcycle131" type="motorcycle_motorcycle" depart="389.91" departLane="best" from="-255563355#5" to="592390953#1"/>
    <trip id="motorcycle132" type="motorcycle_motorcycle" depart="392.89" departLane="best" from="479164814" to="204096428#1"/>
    <trip id="motorcycle133" type="motorcycle_motorcycle" depart="395.86" departLane="best" from="479169836" to="-326191755#5"/>
    <trip id="motorcycle134" type="motorcycle_motorcycle" depart="398.84" departLane="best" from="183217110#6" to="-62226638"/>
    <trip id="motorcycle136" type="motorcycle_motorcycle" depart="404.79" departLane="best" from="-183218191#1" to="-385433663#4"/>
    <trip id="motorcycle137" type="motorcycle_motorcycle" depart="407.77" departLane="best" from="685131160#0" to="-183218192#5"/>
    <trip id="motorcycle138" type="motorcycle_motorcycle" depart="410.75" departLane="best" from="590994746#2" to="-1173665697"/>
    <trip id="motorcycle139" type="motorcycle_motorcycle" depart="413.72" departLane="best" from="-479184827#0" to="590994758#1"/>
    <trip id="motorcycle140" type="motorcycle_motorcycle" depart="416.70" departLane="best" from="593842679#3" to="-592424133#4"/>
    <trip id="motorcycle141" type="motorcycle_motorcycle" depart="419.68" departLane="best" from="-489102593" to="-589843283"/>
    <trip id="motorcycle142" type="motorcycle_motorcycle" depart="422.65" departLane="best" from="-62226547#5" to="62226809#2"/>
    <trip id="motorcycle143" type="motorcycle_motorcycle" depart="425.63" departLane="best" from="-54172956#5" to="590522952"/>
    <trip id="motorcycle144" type="motorcycle_motorcycle" depart="428.60" departLane="best" from="183218177#1" to="933245828"/>
    <trip id="motorcycle146" type="motorcycle_motorcycle" depart="434.56" departLane="best" from="183217115#1" to="183217105#8"/>
    <trip id="motorcycle147" type="motorcycle_motorcycle" depart="437.53" departLane="best" from="-255563358#0" to="326191773"/>
    <trip id="motorcycle148" type="motorcycle_motorcycle" depart="440.51" departLane="best" from="590777077#4" to="62224148#5"/>
    <trip id="motorcycle149" type="motorcycle_motorcycle" depart="443.49" departLane="best" from="685461129#0" to="1173379368#6"/>
    <trip id="motorcycle150" type="motorcycle_motorcycle" depart="446.46" departLane="best" from="-1271190210" to="1173665702"/>
    <trip id="motorcycle151" type="motorcycle_motorcycle" depart="449.44" departLane="best" from="1263826232" to="-685127978#1"/>
    <trip id="motorcycle152" type="motorcycle_motorcycle" depart="452.42" departLane="best" from="253460452#1" to="253460333#4"/>
    <trip id="motorcycle153" type="motorcycle_motorcycle" depart="455.39" departLane="best" from="592424142#2" to="-1263826235"/>
    <trip id="motorcycle154" type="motorcycle_motorcycle" depart="458.37" departLane="best" from="479157501" to="678934111"/>
    <trip id="motorcycle155" type="motorcycle_motorcycle" depart="461.35" departLane="best" from="592424142#2" to="-684482104"/>
    <trip id="motorcycle156" type="motorcycle_motorcycle" depart="464.32" departLane="best" from="255563335#0" to="183218165#2"/>
    <trip id="motorcycle157" type="motorcycle_motorcycle" depart="467.30" departLane="best" from="592424141#0" to="-183218499#3"/>
    <trip id="motorcycle158" type="motorcycle_motorcycle" depart="470.27" departLane="best" from="479162191#2" to="479162191#6"/>
    <trip id="motorcycle159" type="motorcycle_motorcycle" depart="473.25" departLane="best" from="-591843237" to="183218178#4"/>
    <trip id="motorcycle160" type="motorcycle_motorcycle" depart="476.23" departLane="best" from="250457120#2" to="-62226811#0"/>
    <trip id="motorcycle161" type="motorcycle_motorcycle" depart="479.20" departLane="best" from="-887676817" to="-590517850"/>
    <trip id="motorcycle162" type="motorcycle_motorcycle" depart="482.18" departLane="best" from="-546413228#3" to="590522953#1"/>
    <trip id="motorcycle163" type="motorcycle_motorcycle" depart="485.16" departLane="best" from="204096428#2" to="62224548#3"/>
    <trip id="motorcycle164" type="motorcycle_motorcycle" depart="488.13" departLane="best" from="385433663#4" to="-183218175#1"/>
    <trip id="motorcycle165" type="motorcycle_motorcycle" depart="491.11" departLane="best" from="-590994759#2" to="-183218191#3"/>
    <trip id="motorcycle166" type="motorcycle_motorcycle" depart="494.09" departLane="best" from="684867497#6" to="250456766#1"/>
    <trip id="motorcycle167" type="motorcycle_motorcycle" depart="497.06" departLane="best" from="-685107626" to="592390952"/>
    <trip id="motorcycle168" type="motorcycle_motorcycle" depart="500.04" departLane="best" from="385433576#3" to="-685461129#0"/>
    <trip id="motorcycle169" type="motorcycle_motorcycle" depart="503.01" departLane="best" from="255563340#3" to="183218176#2"/>
    <trip id="motorcycle170" type="motorcycle_motorcycle" depart="505.99" departLane="best" from="-183218187#6" to="-385433594#1"/>
    <trip id="motorcycle171" type="motorcycle_motorcycle" depart="508.97" departLane="best" from="183217120#2" to="62226382#3"/>
    <trip id="motorcycle172" type="motorcycle_motorcycle" depart="511.94" departLane="best" from="-385433516" to="-183217119#3"/>
    <trip id="motorcycle173" type="motorcycle_motorcycle" depart="514.92" departLane="best" from="-183218180#0" to="-62224149#5"/>
    <trip id="motorcycle174" type="motorcycle_motorcycle" depart="517.90" departLane="best" from="255563339#7" to="479156673"/>
    <trip id="motorcycle175" type="motorcycle_motorcycle" depart="520.87" departLane="best" from="-678738475" to="-62226640#5"/>
    <trip id="motorcycle176" type="motorcycle_motorcycle" depart="523.85" departLane="best" from="104498606#5" to="62226380#0"/>
    <trip id="motorcycle177" type="motorcycle_motorcycle" depart="526.83" departLane="best" from="592424141#0" to="684480513#1"/>
    <trip id="motorcycle178" type="motorcycle_motorcycle" depart="529.80" departLane="best" from="-681245000" to="592383524#1"/>
    <trip id="motorcycle179" type="motorcycle_motorcycle" depart="532.78" departLane="best" from="-183217120#7" to="479170459"/>
    <trip id="motorcycle180" type="motorcycle_motorcycle" depart="535.76" departLane="best" from="592424139#2" to="-590991306#0"/>
    <trip id="motorcycle181" type="motorcycle_motorcycle" depart="538.73" departLane="best" from="255563330#4" to="-1199342413"/>
    <trip id="motorcycle182" type="motorcycle_motorcycle" depart="541.71" departLane="best" from="-385433663#1" to="-590982381#0"/>
    <trip id="motorcycle183" type="motorcycle_motorcycle" depart="544.68" departLane="best" from="255563339#2" to="-183217105#6"/>
    <trip id="motorcycle184" type="motorcycle_motorcycle" depart="547.66" departLane="best" from="-183218188#1" to="1173665705#1"/>
    <trip id="motorcycle185" type="motorcycle_motorcycle" depart="550.64" departLane="best" from="-678735884#1" to="-183112051#1"/>
    <trip id="motorcycle186" type="motorcycle_motorcycle" depart="553.61" departLane="best" from="-1221684699#2" to="-685127980#1"/>
    <trip id="motorcycle187" type="motorcycle_motorcycle" depart="556.59" departLane="best" from="684867499#1" to="-183217118#0"/>
    <trip id="motorcycle188" type="motorcycle_motorcycle" depart="559.57" departLane="best" from="62226379#6" to="183217121#4"/>
    <trip id="motorcycle189" type="motorcycle_motorcycle" depart="562.54" departLane="best" from="-183218165#7" to="183218191#3"/>
    <trip id="motorcycle190" type="motorcycle_motorcycle" depart="565.52" departLane="best" from="250455571#1" to="183217112#0"/>
    <trip id="motorcycle191" type="motorcycle_motorcycle" depart="568.50" departLane="best" from="-183218189#4" to="-183218182#0"/>
    <trip id="motorcycle192" type="motorcycle_motorcycle" depart="571.47" departLane="best" from="385433570#0" to="-385433429"/>
    <trip id="motorcycle193" type="motorcycle_motorcycle" depart="574.45" departLane="best" from="-684867499#3" to="-385433574#0"/>
    <trip id="motorcycle194" type="motorcycle_motorcycle" depart="577.43" departLane="best" from="62226545#4" to="-183217120#4"/>
    <trip id="motorcycle195" type="motorcycle_motorcycle" depart="580.40" departLane="best" from="-590994746#1" to="-183218178#1"/>
    <trip id="motorcycle196" type="motorcycle_motorcycle" depart="583.38" departLane="best" from="-183218179#3" to="385524622#2"/>
    <trip id="motorcycle197" type="motorcycle_motorcycle" depart="586.35" departLane="best" from="-590994745" to="-183218499#13"/>
    <trip id="motorcycle198" type="motorcycle_motorcycle" depart="589.33" departLane="best" from="385433570#1" to="685123275"/>
    <trip id="motorcycle199" type="motorcycle_motorcycle" depart="592.31" departLane="best" from="183218185#3" to="-592113190#5"/>
    <trip id="motorcycle200" type="motorcycle_motorcycle" depart="595.28" departLane="best" from="183218166#11" to="-385433420#0"/>
    <trip id="motorcycle201" type="motorcycle_motorcycle" depart="598.26" departLane="best" from="183218187#5" to="591852198"/>
    <trip id="motorcycle202" type="motorcycle_motorcycle" depart="601.24" departLane="best" from="183218165#3" to="590768970"/>
    <trip id="motorcycle203" type="motorcycle_motorcycle" depart="604.21" departLane="best" from="591843235#0" to="685131160#1"/>
    <trip id="motorcycle204" type="motorcycle_motorcycle" depart="607.19" departLane="best" from="-385433384#0" to="-590777077#1"/>
    <trip id="motorcycle205" type="motorcycle_motorcycle" depart="610.17" departLane="best" from="590994759#5" to="1173665682"/>
    <trip id="motorcycle206" type="motorcycle_motorcycle" depart="613.14" departLane="best" from="62224547#1" to="-250457115#0"/>
    <trip id="motorcycle207" type="motorcycle_motorcycle" depart="616.12" departLane="best" from="592424140#0" to="385433576#0"/>
    <trip id="motorcycle208" type="motorcycle_motorcycle" depart="619.10" departLane="best" from="-684480511" to="479184826"/>
    <trip id="motorcycle209" type="motorcycle_motorcycle" depart="622.07" departLane="best" from="-62224267#1" to="-183218187#0"/>
    <trip id="motorcycle210" type="motorcycle_motorcycle" depart="625.05" departLane="best" from="-590994747#2" to="590768968#1"/>
    <trip id="motorcycle211" type="motorcycle_motorcycle" depart="628.02" departLane="best" from="-183217121#14" to="592406460"/>
    <trip id="motorcycle213" type="motorcycle_motorcycle" depart="633.98" departLane="best" from="62226384#6" to="592406466"/>
    <trip id="motorcycle214" type="motorcycle_motorcycle" depart="636.95" departLane="best" from="-183218165#7" to="-183218165#5"/>
    <trip id="motorcycle215" type="motorcycle_motorcycle" depart="639.93" departLane="best" from="-183218499#17" to="-590994752#0"/>
    <trip id="motorcycle216" type="motorcycle_motorcycle" depart="642.91" departLane="best" from="183218178#3" to="1263826231"/>
    <trip id="motorcycle217" type="motorcycle_motorcycle" depart="645.88" departLane="best" from="62224267#2" to="-590777077#4"/>
    <trip id="motorcycle218" type="motorcycle_motorcycle" depart="648.86" departLane="best" from="590994759#4" to="-590994752#1"/>
    <trip id="motorcycle219" type="motorcycle_motorcycle" depart="651.84" departLane="best" from="-385433608" to="590815371#0"/>
    <trip id="motorcycle220" type="motorcycle_motorcycle" depart="654.81" departLane="best" from="-590793497" to="385433646"/>
    <trip id="motorcycle221" type="motorcycle_motorcycle" depart="657.79" departLane="best" from="-250465634#0" to="255563370#1"/>
    <trip id="motorcycle222" type="motorcycle_motorcycle" depart="660.77" departLane="best" from="-479184827#0" to="1173379368#2"/>
    <trip id="motorcycle223" type="motorcycle_motorcycle" depart="663.74" departLane="best" from="479162191#6" to="479169838#1"/>
    <trip id="motorcycle224" type="motorcycle_motorcycle" depart="666.72" departLane="best" from="-590768959" to="-479184829#0"/>