<?xml version="1.0" encoding="UTF-8"?>

<!-- generated on 2024-05-02 14:06:10.904606 by osmWebWizard.py UNKNOWN
<configuration>
    <net-file value="/home/descartes/Sumo/2024-05-02-14-05-07/osm.net.xml.gz"/>
    <output-trip-file value="/home/descartes/Sumo/2024-05-02-14-05-07/osm.passenger.trips.xml"/>
    <route-file value="/home/descartes/Sumo/2024-05-02-14-05-07/osm.passenger.rou.xml"/>
    <prefix value="veh"/>
    <trip-attributes value="departLane=&quot;best&quot;"/>
    <fringe-start-attributes value="departSpeed=&quot;max&quot;"/>
    <vehicle-class value="passenger"/>
    <lanes value="True"/>
    <fringe-factor value="5"/>
    <allow-fringe.min-length value="1000.0"/>
    <via-edge-types value="highway.motorway,highway.motorway_link,highway.trunk_link,highway.primary_link,highway.secondary_link,highway.tertiary_link"/>
    <min-distance value="300.0"/>
    <min-distance.fringe value="10.0"/>
    <remove-loops value="True"/>
    <validate value="True"/>
    <insertion-density value="12.0"/>
</configuration>
-->

<!-- generated on 2024-05-02 14:06:07 by Eclipse SUMO duarouter Version 1.19.0
<configuration xmlns:xsi="http://www.w3.org/2001/XMLSchema-instance" xsi:noNamespaceSchemaLocation="http://sumo.dlr.de/xsd/duarouterConfiguration.xsd">

    <input>
        <net-file value="/home/descartes/Sumo/2024-05-02-14-05-07/osm.net.xml.gz"/>
        <route-files value="/home/descartes/Sumo/2024-05-02-14-05-07/osm.passenger.trips.xml"/>
    </input>

    <output>
        <output-file value="/home/descartes/Sumo/2024-05-02-14-05-07/osm.passenger.trips.xml.tmp"/>
        <alternatives-output value="NUL"/>
        <write-trips value="true"/>
    </output>

    <processing>
        <remove-loops value="true"/>
    </processing>

    <time>
        <begin value="0.0"/>
        <end value="3600.0"/>
    </time>

    <report>
        <no-warnings value="true"/>
        <ignore-errors value="true"/>
        <no-step-log value="true"/>
    </report>

</configuration>
-->

<routes xmlns:xsi="http://www.w3.org/2001/XMLSchema-instance" xsi:noNamespaceSchemaLocation="http://sumo.dlr.de/xsd/routes_file.xsd">
    <vType id="veh_passenger" vClass="passenger"/>
    <trip id="veh0" type="veh_passenger" depart="0.00" departLane="best" from="253460333#5" to="-1199342413"/>
    <trip id="veh1" type="veh_passenger" depart="1.00" departLane="best" from="54172956#11" to="-385433550#1"/>
    <trip id="veh3" type="veh_passenger" depart="2.99" departLane="best" from="678620481" to="1221684699#3"/>
    <trip id="veh4" type="veh_passenger" depart="3.98" departLane="best" from="-385433540#0" to="-1191381553#1"/>
    <trip id="veh5" type="veh_passenger" depart="4.98" departLane="best" from="-1199342416#2" to="-326191755#1"/>
    <trip id="veh6" type="veh_passenger" depart="5.97" departLane="best" from="255563328#0" to="183217117#2"/>
    <trip id="veh7" type="veh_passenger" depart="6.97" departLane="best" from="590777077#4" to="-1173665694"/>
    <trip id="veh8" type="veh_passenger" depart="7.96" departLane="best" from="590768968#1" to="385433485"/>
    <trip id="veh9" type="veh_passenger" depart="8.96" departLane="best" from="-591852198" to="-253460398#0"/>
    <trip id="veh10" type="veh_passenger" depart="9.95" departLane="best" from="-684522021" to="591827078"/>
    <trip id="veh11" type="veh_passenger" depart="10.95" departLane="best" from="592113190#0" to="183218498"/>
    <trip id="veh12" type="veh_passenger" depart="11.94" departLane="best" from="590777074" to="407381861#1"/>
    <trip id="veh13" type="veh_passenger" depart="12.94" departLane="best" from="183217105#5" to="685131158"/>
    <trip id="veh14" type="veh_passenger" depart="13.93" departLane="best" from="-62224148#4" to="-183217120#4"/>
    <trip id="veh15" type="veh_passenger" depart="14.93" departLane="best" from="-590994746#1" to="204096428#7"/>
    <trip id="veh16" type="veh_passenger" depart="15.92" departLane="best" from="592424133#2" to="183218178#0"/>
    <trip id="veh17" type="veh_passenger" depart="16.92" departLane="best" from="-385433522" to="-183217104#1"/>
    <trip id="veh18" type="veh_passenger" depart="17.91" departLane="best" from="-385433580#1" to="589902004"/>
    <trip id="veh19" type="veh_passenger" depart="18.91" departLane="best" from="-183218165#9" to="385433649#0"/>
    <trip id="veh20" type="veh_passenger" depart="19.90" departLane="best" from="-183218183#5" to="-54172956#3"/>
    <trip id="veh21" type="veh_passenger" depart="20.90" departLane="best" from="-253460146#2" to="-592424141#1"/>
    <trip id="veh22" type="veh_passenger" depart="21.89" departLane="best" from="-593842676#1" to="-385433420#0"/>
    <trip id="veh23" type="veh_passenger" depart="22.89" departLane="best" from="-479184825#1" to="62229137#1"/>
    <trip id="veh24" type="veh_passenger" depart="23.88" departLane="best" from="253461093#4" to="-183218499#23"/>
    <trip id="veh25" type="veh_passenger" depart="24.88" departLane="best" from="255563339#2" to="407381861#1"/>
    <trip id="veh26" type="veh_passenger" depart="25.87" departLane="best" from="255563330#3" to="62224148#4"/>
    <trip id="veh28" type="veh_passenger" depart="27.86" departLane="best" from="183217121#1" to="326191764#0"/>
    <trip id="veh29" type="veh_passenger" depart="28.86" departLane="best" from="591843235#1" to="-54172956#11"/>
    <trip id="veh30" type="veh_passenger" depart="29.85" departLane="best" from="-385433594#0" to="1263826228#0"/>
    <trip id="veh31" type="veh_passenger" depart="30.85" departLane="best" from="590976369" to="-479184825#1"/>
    <trip id="veh32" type="veh_passenger" depart="31.84" departLane="best" from="-385433429" to="678645244"/>
    <trip id="veh33" type="veh_passenger" depart="32.84" departLane="best" from="593842679#3" to="-590972021#0"/>
    <trip id="veh34" type="veh_passenger" depart="33.83" departLane="best" from="255563335#2" to="62224547#2"/>
    <trip id="veh36" type="veh_passenger" depart="35.82" departLane="best" from="-479173793#0" to="-479158136#1"/>
    <trip id="veh37" type="veh_passenger" depart="36.82" departLane="best" from="183217121#7" to="-479170459"/>
    <trip id="veh38" type="veh_passenger" depart="37.81" departLane="best" from="183218181#0" to="62224547#8"/>
    <trip id="veh39" type="veh_passenger" depart="38.81" departLane="best" from="-62224548#6" to="-385433540#0"/>
    <trip id="veh40" type="veh_passenger" depart="39.80" departLane="best" from="933208903" to="1221684698#2"/>
    <trip id="veh41" type="veh_passenger" depart="40.80" departLane="best" from="183218178#0" to="-183217104#5"/>
    <trip id="veh42" type="veh_passenger" depart="41.79" departLane="best" from="183218190#2" to="-250457120#1"/>
    <trip id="veh43" type="veh_passenger" depart="42.79" departLane="best" from="62229137#2" to="-677692031"/>
    <trip id="veh44" type="veh_passenger" depart="43.78" departLane="best" from="-183217119#8" to="62224148#9"/>
    <trip id="veh45" type="veh_passenger" depart="44.78" departLane="best" from="887795679#3" to="183217104#3"/>
    <trip id="veh46" type="veh_passenger" depart="45.77" departLane="best" from="685127978#0" to="-592424133#4"/>
    <trip id="veh47" type="veh_passenger" depart="46.77" departLane="best" from="-1173665701#1" to="385433667#1"/>
    <trip id="veh48" type="veh_passenger" depart="47.76" departLane="best" from="-256043833#0" to="183217110#1"/>
    <trip id="veh49" type="veh_passenger" depart="48.76" departLane="best" from="-479184825#0" to="-253460398#1"/>
    <trip id="veh50" type="veh_passenger" depart="49.75" departLane="best" from="-183218191#0" to="684478697"/>
    <trip id="veh51" type="veh_passenger" depart="50.75" departLane="best" from="-685131157" to="684480511"/>
    <trip id="veh52" type="veh_passenger" depart="51.74" departLane="best" from="593842679#2" to="-479173013"/>
    <trip id="veh54" type="veh_passenger" depart="53.73" departLane="best" from="62226382#4" to="593842672#1"/>
    <trip id="veh55" type="veh_passenger" depart="54.73" departLane="best" from="-590768964" to="-253460392#1"/>
    <trip id="veh56" type="veh_passenger" depart="55.72" departLane="best" from="183218499#16" to="253460333#7"/>
    <trip id="veh57" type="veh_passenger" depart="56.72" departLane="best" from="479170167" to="183217110#6"/>
    <trip id="veh58" type="veh_passenger" depart="57.71" departLane="best" from="54172956#12" to="183217105#0"/>
    <trip id="veh59" type="veh_passenger" depart="58.71" departLane="best" from="-1071635705" to="-590991306#3"/>
    <trip id="veh61" type="veh_passenger" depart="60.70" departLane="best" from="62224148#12" to="590994757#2"/>
    <trip id="veh62" type="veh_passenger" depart="61.69" departLane="best" from="-590793499" to="-183217116#2"/>
    <trip id="veh63" type="veh_passenger" depart="62.69" departLane="best" from="62224148#10" to="678959282#0"/>
    <trip id="veh64" type="veh_passenger" depart="63.68" departLane="best" from="183218169" to="1173379368#1"/>
    <trip id="veh65" type="veh_passenger" depart="64.68" departLane="best" from="479173015" to="-183218502#2"/>
    <trip id="veh66" type="veh_passenger" depart="65.67" departLane="best" from="933208903" to="183217119#8"/>
    <trip id="veh67" type="veh_passenger" depart="66.67" departLane="best" from="-479173793#0" to="593842676#3"/>
    <trip id="veh68" type="veh_passenger" depart="67.66" departLane="best" from="-678708412" to="-385433429"/>
    <trip id="veh69" type="veh_passenger" depart="68.66" departLane="best" from="183217110#1" to="407381861#1"/>
    <trip id="veh70" type="veh_passenger" depart="69.65" departLane="best" from="326191765" to="590793500#7"/>
    <trip id="veh71" type="veh_passenger" depart="70.65" departLane="best" from="-887795679#1" to="-255563333#1"/>
    <trip id="veh72" type="veh_passenger" depart="71.64" departLane="best" from="-684576966#2" to="1263827638"/>
    <trip id="veh73" type="veh_passenger" depart="72.64" departLane="best" from="183218499#18" to="-385433574#0"/>
    <trip id="veh74" type="veh_passenger" depart="73.63" departLane="best" from="591843235#0" to="183218184#2"/>
    <trip id="veh75" type="veh_passenger" depart="74.63" departLane="best" from="-385433637#0" to="-385433546#0"/>
    <trip id="veh77" type="veh_passenger" depart="76.62" departLane="best" from="385433594#0" to="62226379#9"/>
    <trip id="veh78" type="veh_passenger" depart="77.61" departLane="best" from="-385433667#8" to="-255563355#3"/>
    <trip id="veh79" type="veh_passenger" depart="78.61" departLane="best" from="385433509#2" to="204096428#5"/>
    <trip id="veh80" type="veh_passenger" depart="79.60" departLane="best" from="62226807#5" to="183218167"/>
    <trip id="veh81" type="veh_passenger" depart="80.60" departLane="best" from="887795677#6" to="-588685776#1"/>
    <trip id="veh82" type="veh_passenger" depart="81.59" departLane="best" from="590777076" to="-255563361#3"/>
    <trip id="veh83" type="veh_passenger" depart="82.59" departLane="best" from="183218182#0" to="681245003"/>
    <trip id="veh84" type="veh_passenger" depart="83.59" departLane="best" from="-678732844" to="-820929882#0"/>
    <trip id="veh85" type="veh_passenger" depart="84.58" departLane="best" from="-385524622#0" to="255563360#1"/>
    <trip id="veh86" type="veh_passenger" depart="85.58" departLane="best" from="-686758039#0" to="183218182#4"/>
    <trip id="veh87" type="veh_passenger" depart="86.57" departLane="best" from="-62226545#2" to="-591843235#1"/>
    <trip id="veh88" type="veh_passenger" depart="87.57" departLane="best" from="592424133#2" to="-479158138#1"/>
    <trip id="veh89" type="veh_passenger" depart="88.56" departLane="best" from="-255563361#4" to="-685123322"/>
    <trip id="veh90" type="veh_passenger" depart="89.56" departLane="best" from="678620481" to="-54172956#6"/>
    <trip id="veh91" type="veh_passenger" depart="90.55" departLane="best" from="-479162191#3" to="-62226547#2"/>
    <trip id="veh92" type="veh_passenger" depart="91.55" departLane="best" from="684867499#2" to="-592424133#6"/>
    <trip id="veh93" type="veh_passenger" depart="92.54" departLane="best" from="183217119#3" to="-183217105#3"/>
    <trip id="veh94" type="veh_passenger" depart="93.54" departLane="best" from="-964945084" to="-591827071#0"/>
    <trip id="veh95" type="veh_passenger" depart="94.53" departLane="best" from="-685123274" to="62226638"/>
    <trip id="veh96" type="veh_passenger" depart="95.53" departLane="best" from="592113190#3" to="-255563333#5"/>
    <trip id="veh97" type="veh_passenger" depart="96.52" departLane="best" from="-1130860589" to="385433485"/>
    <trip id="veh98" type="veh_passenger" depart="97.52" departLane="best" from="-62226380#1" to="183217117#1"/>
    <trip id="veh99" type="veh_passenger" depart="98.51" departLane="best" from="-62224148#5" to="-686767326#3"/>
    <trip id="veh100" type="veh_passenger" depart="99.51" departLane="best" from="479173793#1" to="-588685776#0"/>
    <trip id="veh101" type="veh_passenger" depart="100.50" departLane="best" from="685461114" to="-678620481"/>
    <trip id="veh102" type="veh_passenger" depart="101.50" departLane="best" from="-684576965#0" to="887795679#2"/>
    <trip id="veh103" type="veh_passenger" depart="102.49" departLane="best" from="183217120#8" to="-385433663#0"/>
    <trip id="veh104" type="veh_passenger" depart="103.49" departLane="best" from="-253460392#5" to="590546535#4"/>
    <trip id="veh105" type="veh_passenger" depart="104.48" departLane="best" from="-685123256" to="183218178#5"/>
    <trip id="veh106" type="veh_passenger" depart="105.48" departLane="best" from="183217110#7" to="-479158137#2"/>
    <trip id="veh107" type="veh_passenger" depart="106.47" departLane="best" from="183217116#0" to="183218182#3"/>
    <trip id="veh109" type="veh_passenger" depart="108.46" departLane="best" from="253460452#0" to="-684867497#4"/>
    <trip id="veh110" type="veh_passenger" depart="109.46" departLane="best" from="-183218166#0" to="-255563358#0"/>
    <trip id="veh111" type="veh_passenger" depart="110.45" departLane="best" from="183218188#0" to="255563361#3"/>
    <trip id="veh112" type="veh_passenger" depart="111.45" departLane="best" from="62224267#0" to="-479158136#0"/>
    <trip id="veh113" type="veh_passenger" depart="112.44" departLane="best" from="183218187#5" to="204096428#9"/>
    <trip id="veh114" type="veh_passenger" depart="113.44" departLane="best" from="-677692009" to="183218182#2"/>
    <trip id="veh117" type="veh_passenger" depart="116.42" departLane="best" from="-385433668" to="62224547#2"/>
    <trip id="veh118" type="veh_passenger" depart="117.42" departLane="best" from="255563355#6" to="-590768966"/>
    <trip id="veh119" type="veh_passenger" depart="118.41" departLane="best" from="-590982379#1" to="479162192#0"/>
    <trip id="veh121" type="veh_passenger" depart="120.40" departLane="best" from="933208905" to="887795679#3"/>
    <trip id="veh122" type="veh_passenger" depart="121.40" departLane="best" from="-183217121#9" to="-385433465"/>
    <trip id="veh123" type="veh_passenger" depart="122.39" departLane="best" from="479173793#1" to="62226809#3"/>
    <trip id="veh124" type="veh_passenger" depart="123.39" departLane="best" from="-593842674#1" to="-253460452#0"/>
    <trip id="veh125" type="veh_passenger" depart="124.38" departLane="best" from="-590994758#1" to="385433528#1"/>
    <trip id="veh126" type="veh_passenger" depart="125.38" departLane="best" from="183218499#24" to="-887795677#0"/>
    <trip id="veh127" type="veh_passenger" depart="126.37" departLane="best" from="255563333#6" to="-1173665696"/>
    <trip id="veh128" type="veh_passenger" depart="127.37" departLane="best" from="-590793500#8" to="-590768964"/>
    <trip id="veh129" type="veh_passenger" depart="128.36" departLane="best" from="255563344#0" to="62229137#6"/>
    <trip id="veh130" type="veh_passenger" depart="129.36" departLane="best" from="-250455089#1" to="-183218192#5"/>
    <trip id="veh131" type="veh_passenger" depart="130.35" departLane="best" from="-183218188#1" to="183217120#7"/>
    <trip id="veh132" type="veh_passenger" depart="131.35" departLane="best" from="-489364458#1" to="-183218499#10"/>
    <trip id="veh134" type="veh_passenger" depart="133.34" departLane="best" from="-253459884" to="-479173016#0"/>
    <trip id="veh135" type="veh_passenger" depart="134.33" departLane="best" from="-1173379368#1" to="62226379#9"/>
    <trip id="veh136" type="veh_passenger" depart="135.33" departLane="best" from="-592082556#0" to="-183218178#3"/>
    <trip id="veh137" type="veh_passenger" depart="136.32" departLane="best" from="-678732844" to="-54172956#14"/>
    <trip id="veh138" type="veh_passenger" depart="137.32" departLane="best" from="-1173379368#1" to="-479184829#2"/>
    <trip id="veh139" type="veh_passenger" depart="138.31" departLane="best" from="-253460238" to="-479170458#0"/>
    <trip id="veh140" type="veh_passenger" depart="139.31" departLane="best" from="407381862#1" to="183217120#3"/>
    <trip id="veh141" type="veh_passenger" depart="140.30" departLane="best" from="-678959282#1" to="-1173665698#3"/>
    <trip id="veh142" type="veh_passenger" depart="141.30" departLane="best" from="-183217122#4" to="62224149#4"/>
    <trip id="veh143" type="veh_passenger" depart="142.29" departLane="best" from="62226379#10" to="183217118#0"/>
    <trip id="veh144" type="veh_passenger" depart="143.29" departLane="best" from="-590994758#3" to="183218181#1"/>
    <trip id="veh145" type="veh_passenger" depart="144.28" departLane="best" from="-253460181" to="-183218502#0"/>
    <trip id="veh146" type="veh_passenger" depart="145.28" departLane="best" from="-590793500#1" to="62224548#1"/>
    <trip id="veh147" type="veh_passenger" depart="146.27" departLane="best" from="590522951#2" to="-592424133#4"/>
    <trip id="veh148" type="veh_passenger" depart="147.27" departLane="best" from="-62224547#6" to="-385433420#2"/>
    <trip id="veh149" type="veh_passenger" depart="148.26" departLane="best" from="-479162191#3" to="-183218185#0"/>
    <trip id="veh150" type="veh_passenger" depart="149.26" departLane="best" from="54172956#2" to="62224150#0"/>
    <trip id="veh151" type="veh_passenger" depart="150.25" departLane="best" from="62226547#2" to="250455092"/>
    <trip id="veh152" type="veh_passenger" depart="151.25" departLane="best" from="592424136#0" to="-685461115#4"/>
    <trip id="veh153" type="veh_passenger" depart="152.24" departLane="best" from="-590793475" to="-62224148#9"/>
    <trip id="veh154" type="veh_passenger" depart="153.24" departLane="best" from="1191381556" to="407381862#4"/>
    <trip id="veh155" type="veh_passenger" depart="154.23" departLane="best" from="-590994759#1" to="-62226807#3"/>
    <trip id="veh156" type="veh_passenger" depart="155.23" departLane="best" from="-678886768" to="-592424139#0"/>
    <trip id="veh157" type="veh_passenger" depart="156.22" departLane="best" from="-590793475" to="479184823"/>
    <trip id="veh159" type="veh_passenger" depart="158.21" departLane="best" from="593842672#0" to="592406466"/>
    <trip id="veh160" type="veh_passenger" depart="159.21" departLane="best" from="-385433550#1" to="-590815371#1"/>
    <trip id="veh161" type="veh_passenger" depart="160.20" departLane="best" from="685461129#0" to="-590777077#4"/>
    <trip id="veh162" type="veh_passenger" depart="161.20" departLane="best" from="590522951#0" to="385433576#4"/>
    <trip id="veh163" type="veh_passenger" depart="162.19" departLane="best" from="1191381554" to="-255563365#2"/>
    <trip id="veh164" type="veh_passenger" depart="163.19" departLane="best" from="590994757#0" to="-592424139#1"/>
    <trip id="veh165" type="veh_passenger" depart="164.19" departLane="best" from="685107627#0" to="-54172956#7"/>
    <trip id="veh166" type="veh_passenger" depart="165.18" departLane="best" from="253460392#2" to="-62224548#3"/>
    <trip id="veh167" type="veh_passenger" depart="166.18" departLane="best" from="685461129#1" to="183217109"/>
    <trip id="veh168" type="veh_passenger" depart="167.17" departLane="best" from="62226812#2" to="-183218192#5"/>
    <trip id="veh169" type="veh_passenger" depart="168.17" departLane="best" from="685123322" to="-255563349"/>
    <trip id="veh170" type="veh_passenger" depart="169.16" departLane="best" from="684867497#4" to="-479173793#0"/>
    <trip id="veh171" type="veh_passenger" depart="170.16" departLane="best" from="-183218189#4" to="684478697"/>
    <trip id="veh172" type="veh_passenger" depart="171.15" departLane="best" from="-385524602#1" to="-590815371#0"/>
    <trip id="veh173" type="veh_passenger" depart="172.15" departLane="best" from="183218499#0" to="1221684699#2"/>
    <trip id="veh174" type="veh_passenger" depart="173.14" departLane="best" from="-62224151#2" to="183218177#1"/>
    <trip id="veh175" type="veh_passenger" depart="174.14" departLane="best" from="1173379366#0" to="62226637#2"/>
    <trip id="veh176" type="veh_passenger" depart="175.13" departLane="best" from="-183217108" to="-385433663#3"/>
    <trip id="veh177" type="veh_passenger" depart="176.13" departLane="best" from="407381862#3" to="255563358#0"/>
    <trip id="veh178" type="veh_passenger" depart="177.12" departLane="best" from="592424141#1" to="-183217121#12"/>
    <trip id="veh179" type="veh_passenger" depart="178.12" departLane="best" from="255563344#2" to="1263827638"/>
    <trip id="veh180" type="veh_passenger" depart="179.11" departLane="best" from="-590972021#1" to="-592113190#6"/>
    <trip id="veh181" type="veh_passenger" depart="180.11" departLane="best" from="-385433649#2" to="-590768967#0"/>
    <trip id="veh182" type="veh_passenger" depart="181.10" departLane="best" from="-590793500#11" to="-62226547#4"/>
    <trip id="veh183" type="veh_passenger" depart="182.10" departLane="best" from="-62226545#2" to="-590546535#2"/>
    <trip id="veh184" type="veh_passenger" depart="183.09" departLane="best" from="183218502#0" to="677692009"/>
    <trip id="veh185" type="veh_passenger" depart="184.09" departLane="best" from="62229137#1" to="-255563365#0"/>
    <trip id="veh186" type="veh_passenger" depart="185.08" departLane="best" from="62224548#8" to="-204096428#0"/>
    <trip id="veh187" type="veh_passenger" depart="186.08" departLane="best" from="-590768968#2" to="183217119#3"/>
    <trip id="veh188" type="veh_passenger" depart="187.07" departLane="best" from="-1071635705" to="-589857582"/>
    <trip id="veh189" type="veh_passenger" depart="188.07" departLane="best" from="-681245003" to="183218179#1"/>
    <trip id="veh190" type="veh_passenger" depart="189.06" departLane="best" from="255563335#0" to="-686767326#1"/>
    <trip id="veh191" type="veh_passenger" depart="190.06" departLane="best" from="684867499#0" to="385433485"/>
    <trip id="veh192" type="veh_passenger" depart="191.05" departLane="best" from="590522951#2" to="-255563335#6"/>
    <trip id="veh193" type="veh_passenger" depart="192.05" departLane="best" from="-183218167" to="1263826230"/>
    <trip id="veh194" type="veh_passenger" depart="193.04" departLane="best" from="250465637#2" to="-591827071#1"/>
    <trip id="veh195" type="veh_passenger" depart="194.04" departLane="best" from="590815371#0" to="-479162191#6"/>
    <trip id="veh196" type="veh_passenger" depart="195.03" departLane="best" from="255563358#1" to="385433574#0"/>
    <trip id="veh197" type="veh_passenger" depart="196.03" departLane="best" from="326191755#4" to="-1191381555"/>
    <trip id="veh198" type="veh_passenger" depart="197.02" departLane="best" from="-479158135#0" to="-933208905"/>
    <trip id="veh199" type="veh_passenger" depart="198.02" departLane="best" from="592113190#6" to="-183217121#7"/>
    <trip id="veh200" type="veh_passenger" depart="199.01" departLane="best" from="-62226807#4" to="250465634#1"/>
    <trip id="veh201" type="veh_passenger" depart="200.01" departLane="best" from="-255563373#1" to="385433434"/>
    <trip id="veh202" type="veh_passenger" depart="201.00" departLane="best" from="1173665698#3" to="479157500#1"/>
    <trip id="veh203" type="veh_passenger" depart="202.00" departLane="best" from="255563335#4" to="1173665682"/>
    <trip id="veh204" type="veh_passenger" depart="202.99" departLane="best" from="479158138#1" to="-479184827#2"/>
    <trip id="veh205" type="veh_passenger" depart="203.99" departLane="best" from="183218188#0" to="678735884#0"/>
    <trip id="veh206" type="veh_passenger" depart="204.98" departLane="best" from="255563344#1" to="-684669125"/>
    <trip id="veh207" type="veh_passenger" depart="205.98" departLane="best" from="-1263826231" to="183217105#2"/>
    <trip id="veh208" type="veh_passenger" depart="206.97" departLane="best" from="479162191#2" to="592146041#0"/>
    <trip id="veh210" type="veh_passenger" depart="208.96" departLane="best" from="183218188#1" to="681245003"/>
    <trip id="veh211" type="veh_passenger" depart="209.96" departLane="best" from="62224267#3" to="-183218501#0"/>
    <trip id="veh212" type="veh_passenger" depart="210.95" departLane="best" from="-385433649#0" to="1191381552"/>
    <trip id="veh213" type="veh_passenger" depart="211.95" departLane="best" from="-590994747#0" to="183217119#3"/>
    <trip id="veh214" type="veh_passenger" depart="212.94" departLane="best" from="-62224547#2" to="479157501"/>
    <trip id="veh215" type="veh_passenger" depart="213.94" departLane="best" from="933208901" to="-479169840"/>
    <trip id="veh216" type="veh_passenger" depart="214.93" departLane="best" from="479158137#3" to="253460333#6"/>
    <trip id="veh217" type="veh_passenger" depart="215.93" departLane="best" from="-479173013" to="183112046#2"/>
    <trip id="veh220" type="veh_passenger" depart="218.91" departLane="best" from="489102594#1" to="-590982385#0"/>
    <trip id="veh221" type="veh_passenger" depart="219.91" departLane="best" from="183217110#3" to="250456766#1"/>
    <trip id="veh222" type="veh_passenger" depart="220.90" departLane="best" from="385433637#3" to="385433420#1"/>
    <trip id="veh223" type="veh_passenger" depart="221.90" departLane="best" from="385433546#0" to="183217119#9"/>
    <trip id="veh224" type="veh_passenger" depart="222.89" departLane="best" from="-62226547#5" to="183217115#2"/>
    <trip id="veh225" type="veh_passenger" depart="223.89" departLane="best" from="-62226809#3" to="385433384#1"/>
    <trip id="veh226" type="veh_passenger" depart="224.88" departLane="best" from="-677692016#1" to="62226379#8"/>
    <trip id="veh227" type="veh_passenger" depart="225.88" departLane="best" from="183218180#1" to="385433426"/>
    <trip id="veh228" type="veh_passenger" depart="226.87" departLane="best" from="-592390948" to="479173793#0"/>
    <trip id="veh229" type="veh_passenger" depart="227.87" departLane="best" from="-62224148#9" to="-1173665693"/>
    <trip id="veh230" type="veh_passenger" depart="228.86" departLane="best" from="-592390947#0" to="479165049#0"/>
    <trip id="veh231" type="veh_passenger" depart="229.86" departLane="best" from="592383523" to="-684479653"/>
    <trip id="veh232" type="veh_passenger" depart="230.85" departLane="best" from="677692008" to="479158137#0"/>
    <trip id="veh233" type="veh_passenger" depart="231.85" departLane="best" from="183217116#1" to="183218497#2"/>
    <trip id="veh234" type="veh_passenger" depart="232.84" departLane="best" from="-385433546#3" to="385433540#0"/>
    <trip id="veh235" type="veh_passenger" depart="233.84" departLane="best" from="-684482104" to="-1221684699#1"/>
    <trip id="veh236" type="veh_passenger" depart="234.83" departLane="best" from="-591838510" to="-255563370#1"/>
    <trip id="veh237" type="veh_passenger" depart="235.83" departLane="best" from="-62226546#2" to="-255563333#2"/>
    <trip id="veh238" type="veh_passenger" depart="236.82" departLane="best" from="686767326#7" to="-183218502#0"/>
    <trip id="veh239" type="veh_passenger" depart="237.82" departLane="best" from="-250455089#0" to="1221684698#1"/>
    <trip id="veh240" type="veh_passenger" depart="238.81" departLane="best" from="-62224547#11" to="183218165#4"/>
    <trip id="veh241" type="veh_passenger" depart="239.81" departLane="best" from="-1221684698#2" to="253460445"/>
    <trip id="veh242" type="veh_passenger" depart="240.80" departLane="best" from="-250455571#0" to="685711355"/>
    <trip id="veh243" type="veh_passenger" depart="241.80" departLane="best" from="-183217105#2" to="62224148#3"/>
    <trip id="veh244" type="veh_passenger" depart="242.79" departLane="best" from="-385433434" to="-590994747#2"/>
    <trip id="veh245" type="veh_passenger" depart="243.79" departLane="best" from="479169839#0" to="62224148#3"/>
    <trip id="veh246" type="veh_passenger" depart="244.78" departLane="best" from="479162191#1" to="590994758#1"/>
    <trip id="veh247" type="veh_passenger" depart="245.78" departLane="best" from="-479165049#0" to="183218166#12"/>
    <trip id="veh249" type="veh_passenger" depart="247.77" departLane="best" from="964945085" to="-592383523"/>
    <trip id="veh250" type="veh_passenger" depart="248.77" departLane="best" from="255563330#4" to="479165276"/>
    <trip id="veh251" type="veh_passenger" depart="249.76" departLane="best" from="678959283" to="-326191755#3"/>
    <trip id="veh252" type="veh_passenger" depart="250.76" departLane="best" from="183218499#9" to="-255563355#5"/>
    <trip id="veh253" type="veh_passenger" depart="251.75" departLane="best" from="-183217122#4" to="-385433516"/>
    <trip id="veh254" type="veh_passenger" depart="252.75" departLane="best" from="385433458" to="479184823"/>
    <trip id="veh255" type="veh_passenger" depart="253.74" departLane="best" from="255563335#2" to="-183218499#17"/>
    <trip id="veh256" type="veh_passenger" depart="254.74" departLane="best" from="-479158135#1" to="-183218192#3"/>
    <trip id="veh257" type="veh_passenger" depart="255.73" departLane="best" from="590972021#1" to="684869598"/>
    <trip id="veh258" type="veh_passenger" depart="256.73" departLane="best" from="-183218189#2" to="-1199342416#0"/>